28
H5 C16 O7
O -0.841207 -1.875664 -5.689722
O 1.382930 -1.875664 -5.689586
C -3.280739 0.668189 2.062359
H 0.270526 0.649172 2.584312
C -4.592884 1.009434 2.745133
H 2.466802 -0.618827 -1.001764
O -2.116437 -0.656051 -1.104811
C -2.867186 0.535562 -1.170909
H -2.166948 1.431027 -1.084987
H -3.421538 0.580764 -2.166024
H -3.620138 0.558444 -0.315179
O -4.460850 1.498049 3.854569
O -5.572967 0.856107 2.038588
O 6.117005 0.855722 2.037635
O 5.004749 1.497752 3.853526
C 1.481325 0.059475 0.844590
C 2.775859 0.396101 1.518381
C 0.270509 0.283177 1.504658
C 0.270634 -0.639802 -1.132552
C 0.270699 -1.050863 -2.572771
C -0.938334 -0.415050 -0.469513
C -0.940223 0.059507 0.844477
C -2.234840 0.396181 1.518132
C 1.479533 -0.415074 -0.469377
C 3.821721 0.668109 2.062745
C 0.270776 -1.382924 -3.736306
C 5.133814 1.009306 2.745655
C 0.270840 -1.799534 -5.196032