32
H7 C17 O8
C 1.348097 -0.066281 -0.634050
C 2.642699 -0.402931 -1.307705
C 0.137337 -0.289950 -1.294232
C 0.137211 0.633028 1.342979
C 0.137174 1.044089 2.783198
C -1.071687 0.408300 0.679803
C -1.073437 -0.066273 -0.634164
C -2.367999 -0.402899 -1.307955
C 1.346208 0.408276 0.679939
C -3.413834 -0.674923 -1.852296
C 3.688626 -0.674939 -1.851933
C 0.137098 1.376151 3.946732
C -4.725926 -1.016120 -2.535205
C 5.000744 -1.016168 -2.534729
C 0.137034 1.792761 5.406459
O -4.594750 -1.505545 -3.643530
O -5.707006 -0.863514 -1.827639
O 0.139756 -0.727153 -2.582045
C 1.469816 -0.877129 -3.025130
H 2.156360 -1.017016 -2.125872
H 1.543363 -1.789334 -3.704887
H 1.785262 0.053646 -3.602905
O -0.975084 1.868890 5.900013
O 1.249081 1.868890 5.900149
O 5.980897 -0.862993 -1.826914
O 4.868766 -1.504943 -3.642918
O -2.248264 0.653102 1.316531
C -1.988431 1.120506 2.621107
H -0.941671 1.570216 2.662140
H -2.755266 1.916841 2.899265
H -2.058176 0.252456 3.356845
H 2.333410 0.612270 1.212326