32
H7 C17 O8
C -3.209225 3.443530 2.491209
C 1.654444 0.635668 -5.450365
O 2.278298 -5.754715 1.783620
O 1.166042 -5.112685 3.599511
O 2.276365 -0.289391 -5.943941
O 1.164303 1.636756 -5.944055
O -0.524323 2.132635 -1.359734
C 0.623016 2.863833 -1.729689
H 1.516290 2.159107 -1.800301
H 0.448415 3.358594 -2.741771
H 0.832143 3.665106 -0.946136
O -3.567513 4.368463 1.784142
O -3.567416 3.084338 3.600123
H 1.730614 -1.856111 -1.256028
O -0.529244 -0.622187 2.538071
C -1.324575 0.454446 2.981020
H -1.788175 0.979565 2.081626
H -2.152002 0.061651 3.659779
H -0.676754 1.192716 3.559816
C -0.560461 0.755148 0.590348
C -1.499243 1.707997 1.264071
C -0.148739 -0.405201 1.250530
C 0.650425 0.056095 -1.386772
C 1.006296 0.261514 -2.827013
C 1.060299 -1.103203 -0.723618
C 0.650334 -1.341979 0.590416
C 1.006146 -2.631373 1.264230
C -0.148634 0.990732 -0.723664
C 1.293572 -3.673091 1.808571
C -2.257720 2.477785 1.808367
C 1.293781 0.427450 -3.990616
C 1.654163 -4.979984 2.491481