89
H35 C43 O11
O 3.693457 -0.341299 10.077275
O 2.581410 -2.267440 10.077310
O -4.608528 -3.864496 -5.717750
C -6.504232 -3.455934 -7.148060
C -6.012812 -3.738195 -5.716004
H -7.639677 -3.354027 -7.147186
H -6.035987 -2.488236 -7.527505
H -6.200725 -4.317695 -7.829923
H -6.316169 -2.877262 -5.033127
H -6.480950 -4.706350 -5.337641
C -0.142217 -0.802768 -0.642220
C 0.269520 0.357603 -1.302355
C 1.068634 -0.103805 1.334935
C 1.478552 1.055516 0.671831
C -3.281271 -4.626523 -1.849585
C -4.170175 -5.511258 -2.471922
C -4.616067 -5.255014 -3.774026
C -5.580040 -6.214112 -4.448763
C -4.173013 -4.114008 -4.453828
C 1.068556 1.294347 -0.642220
C 0.269598 -1.038424 0.671796
C -2.838238 -3.485777 -2.529387
C -3.284109 -3.229495 -3.831596
C 1.588961 -1.815183 6.102843
C 1.907977 -2.002475 7.453155
C 2.674326 -1.046464 8.130477
C 3.020216 -1.249445 9.594567
C 3.121510 0.096900 7.457556
C 2.802387 0.284179 6.107314
C 2.036187 -0.672041 5.430027
C -1.874415 -2.526517 -1.854720
C -1.106125 -1.761928 -1.316922
C 1.414523 -0.306885 2.798955
C 1.690276 -0.468801 3.965937
O -5.899945 -5.879112 -5.587414
O -5.899852 -7.163246 -3.771441
O 2.276390 1.953998 1.308840
C 2.524194 3.451379 3.180462
C 1.619691 2.433640 2.460696
H 3.500684 2.946338 3.482181
H 1.395183 1.562428 3.160759
H 0.643779 2.939707 2.158732
H -0.047453 0.540574 -2.382004
H -0.047675 -1.995222 1.204285
H 1.543641 -2.933386 8.001014
O 0.843962 -2.744962 5.447110
C -0.325475 -4.847343 5.585026
C 0.517911 -3.795381 6.329385
H -0.589067 -5.697004 6.297945
H -1.283122 -4.363975 5.199153
H 0.272342 -5.260288 4.706523
H -0.078729 -3.382102 7.208412
H 1.475622 -4.279428 6.714280
C 1.588633 5.219337 -3.844766
C 1.907700 6.429950 -4.471470
C 2.673964 7.387270 -3.795894
C 3.019854 8.699978 -4.475173
C 3.121289 7.133804 -2.493581
C 2.802372 5.923179 -1.867017
C 2.035895 4.965982 -2.542767
C 1.414383 2.607018 -1.321603
C 1.690111 3.653311 -1.863174
O 3.692997 9.457843 -3.779790
O 2.580857 8.815885 -5.595798
H 1.993466 3.839695 4.111714
H 2.747611 4.322357 2.479630
H -2.918284 -4.835393 -0.789324
O -4.599261 -6.620805 -1.812975
C -4.712303 -9.027683 -1.788033
C -4.225183 -7.772330 -2.535536
H -4.410290 -9.959007 -2.372048
H -4.240729 -9.060057 -0.750583
H -5.847424 -8.993227 -1.688473
H -3.090148 -7.805945 -2.636074
H -4.697720 -7.740413 -3.572496
H 0.964656 4.440026 -4.395070
H 1.543430 6.636226 -5.531730
H 3.166643 5.716903 -0.806756
O 3.863635 8.065089 -1.837044
C 3.965803 10.312977 -0.975065
C 3.123658 9.259384 -1.718480
H 3.367998 11.278927 -0.879208
H 4.230448 9.925056 0.063782
H 4.923048 10.515184 -1.560302
H 2.165900 9.056757 -1.134326
H 2.860083 9.647848 -2.757362
H 3.166487 1.215177 5.559490
H 3.745358 0.875445 8.009153
H -2.923389 -2.300572 -4.385184